/*--------------------------------*- C++ -*----------------------------------*\
| =========                 |                                                 |
| \\      /  F ield         | OpenFOAM: The Open Source CFD Toolbox           |
|  \\    /   O peration     | Version:  v1712                                 |
|   \\  /    A nd           | Web:      www.OpenFOAM.com                      |
|    \\/     M anipulation  |                                                 |
\*---------------------------------------------------------------------------*/
FoamFile
{
    version     2.0;
    format      binary;
    class       polyBoundaryMesh;
    arch        "LSB;label=32;scalar=64";
    location    "constant/polyMesh";
    object      boundary;
}
// * * * * * * * * * * * * * * * * * * * * * * * * * * * * * * * * * * * * * //

78
(
    frontAndBack
    {
        type            patch;
        nFaces          0;
        startFace       247301;
    }
    inlet
    {
        type            patch;
        nFaces          0;
        startFace       247301;
    }
    outlet
    {
        type            patch;
        nFaces          0;
        startFace       247301;
    }
    lowerWall
    {
        type            wall;
        inGroups        1(wall);
        nFaces          0;
        startFace       247301;
    }
    upperWall
    {
        type            patch;
        nFaces          0;
        startFace       247301;
    }
    motorBike_frt-fairing:001%1
    {
        type            wall;
        inGroups        2(motorBikeGroup wall);
        nFaces          4275;
        startFace       247301;
    }
    motorBike_windshield:002%2
    {
        type            wall;
        inGroups        2(motorBikeGroup wall);
        nFaces          0;
        startFace       251576;
    }
    motorBike_rr-wh-rim:005%5
    {
        type            wall;
        inGroups        2(motorBikeGroup wall);
        nFaces          0;
        startFace       251576;
    }
    motorBike_rr-wh-rim:010%10
    {
        type            wall;
        inGroups        2(motorBikeGroup wall);
        nFaces          0;
        startFace       251576;
    }
    motorBike_fr-wh-rim:011%11
    {
        type            wall;
        inGroups        2(motorBikeGroup wall);
        nFaces          0;
        startFace       251576;
    }
    motorBike_fr-wh-brake-disk:012%12
    {
        type            wall;
        inGroups        2(motorBikeGroup wall);
        nFaces          0;
        startFace       251576;
    }
    motorBike_frame:016-shadow%13
    {
        type            wall;
        inGroups        2(motorBikeGroup wall);
        nFaces          0;
        startFace       251576;
    }
    motorBike_rear-susp:014%14
    {
        type            wall;
        inGroups        2(motorBikeGroup wall);
        nFaces          0;
        startFace       251576;
    }
    motorBike_rear-susp:014-shadow%15
    {
        type            wall;
        inGroups        2(motorBikeGroup wall);
        nFaces          0;
        startFace       251576;
    }
    motorBike_frame:016%16
    {
        type            wall;
        inGroups        2(motorBikeGroup wall);
        nFaces          0;
        startFace       251576;
    }
    motorBike_rr-wh-rim:005-shadow%17
    {
        type            wall;
        inGroups        2(motorBikeGroup wall);
        nFaces          0;
        startFace       251576;
    }
    motorBike_rr-wh-chain-hub:022%22
    {
        type            wall;
        inGroups        2(motorBikeGroup wall);
        nFaces          0;
        startFace       251576;
    }
    motorBike_rearseat%24
    {
        type            wall;
        inGroups        2(motorBikeGroup wall);
        nFaces          0;
        startFace       251576;
    }
    motorBike_frt-fairing%25
    {
        type            wall;
        inGroups        2(motorBikeGroup wall);
        nFaces          0;
        startFace       251576;
    }
    motorBike_windshield%26
    {
        type            wall;
        inGroups        2(motorBikeGroup wall);
        nFaces          0;
        startFace       251576;
    }
    motorBike_headlights%27
    {
        type            wall;
        inGroups        2(motorBikeGroup wall);
        nFaces          0;
        startFace       251576;
    }
    motorBike_driversseat%28
    {
        type            wall;
        inGroups        2(motorBikeGroup wall);
        nFaces          0;
        startFace       251576;
    }
    motorBike_rear-body%29
    {
        type            wall;
        inGroups        2(motorBikeGroup wall);
        nFaces          0;
        startFace       251576;
    }
    motorBike_fuel-tank%30
    {
        type            wall;
        inGroups        2(motorBikeGroup wall);
        nFaces          0;
        startFace       251576;
    }
    motorBike_exhaust%31
    {
        type            wall;
        inGroups        2(motorBikeGroup wall);
        nFaces          6942;
        startFace       251576;
    }
    motorBike_rr-wh-rim%32
    {
        type            wall;
        inGroups        2(motorBikeGroup wall);
        nFaces          0;
        startFace       258518;
    }
    motorBike_fr-mud-guard%33
    {
        type            wall;
        inGroups        2(motorBikeGroup wall);
        nFaces          0;
        startFace       258518;
    }
    motorBike_fr-wh-rim%34
    {
        type            wall;
        inGroups        2(motorBikeGroup wall);
        nFaces          0;
        startFace       258518;
    }
    motorBike_fr-wh-brake-disk%35
    {
        type            wall;
        inGroups        2(motorBikeGroup wall);
        nFaces          0;
        startFace       258518;
    }
    motorBike_fr-brake-caliper%36
    {
        type            wall;
        inGroups        2(motorBikeGroup wall);
        nFaces          0;
        startFace       258518;
    }
    motorBike_fr-wh-tyre%37
    {
        type            wall;
        inGroups        2(motorBikeGroup wall);
        nFaces          0;
        startFace       258518;
    }
    motorBike_hbars%38
    {
        type            wall;
        inGroups        2(motorBikeGroup wall);
        nFaces          0;
        startFace       258518;
    }
    motorBike_fr-forks%39
    {
        type            wall;
        inGroups        2(motorBikeGroup wall);
        nFaces          0;
        startFace       258518;
    }
    motorBike_chain%40
    {
        type            wall;
        inGroups        2(motorBikeGroup wall);
        nFaces          0;
        startFace       258518;
    }
    motorBike_rr-wh-tyre%41
    {
        type            wall;
        inGroups        2(motorBikeGroup wall);
        nFaces          0;
        startFace       258518;
    }
    motorBike_square-dial%42
    {
        type            wall;
        inGroups        2(motorBikeGroup wall);
        nFaces          0;
        startFace       258518;
    }
    motorBike_round-dial%43
    {
        type            wall;
        inGroups        2(motorBikeGroup wall);
        nFaces          0;
        startFace       258518;
    }
    motorBike_dial-holder%44
    {
        type            wall;
        inGroups        2(motorBikeGroup wall);
        nFaces          0;
        startFace       258518;
    }
    motorBike_rear-susp%45
    {
        type            wall;
        inGroups        2(motorBikeGroup wall);
        nFaces          0;
        startFace       258518;
    }
    motorBike_rear-brake-lights%46
    {
        type            wall;
        inGroups        2(motorBikeGroup wall);
        nFaces          0;
        startFace       258518;
    }
    motorBike_rear-light-bracket%47
    {
        type            wall;
        inGroups        2(motorBikeGroup wall);
        nFaces          0;
        startFace       258518;
    }
    motorBike_frame%48
    {
        type            wall;
        inGroups        2(motorBikeGroup wall);
        nFaces          0;
        startFace       258518;
    }
    motorBike_rear-mud-guard%49
    {
        type            wall;
        inGroups        2(motorBikeGroup wall);
        nFaces          0;
        startFace       258518;
    }
    motorBike_rear-susp-spring-damp%50
    {
        type            wall;
        inGroups        2(motorBikeGroup wall);
        nFaces          0;
        startFace       258518;
    }
    motorBike_fairing-inner-plate%51
    {
        type            wall;
        inGroups        2(motorBikeGroup wall);
        nFaces          0;
        startFace       258518;
    }
    motorBike_clutch-housing%52
    {
        type            wall;
        inGroups        2(motorBikeGroup wall);
        nFaces          0;
        startFace       258518;
    }
    motorBike_radiator%53
    {
        type            wall;
        inGroups        2(motorBikeGroup wall);
        nFaces          0;
        startFace       258518;
    }
    motorBike_water-pipe%54
    {
        type            wall;
        inGroups        2(motorBikeGroup wall);
        nFaces          134;
        startFace       258518;
    }
    motorBike_water-pump%55
    {
        type            wall;
        inGroups        2(motorBikeGroup wall);
        nFaces          1493;
        startFace       258652;
    }
    motorBike_engine%56
    {
        type            wall;
        inGroups        2(motorBikeGroup wall);
        nFaces          0;
        startFace       260145;
    }
    motorBike_rear-shock-link%57
    {
        type            wall;
        inGroups        2(motorBikeGroup wall);
        nFaces          0;
        startFace       260145;
    }
    motorBike_rear-brake-fluid-pot-bracket%58
    {
        type            wall;
        inGroups        2(motorBikeGroup wall);
        nFaces          0;
        startFace       260145;
    }
    motorBike_rear-brake-fluid-pot%59
    {
        type            wall;
        inGroups        2(motorBikeGroup wall);
        nFaces          0;
        startFace       260145;
    }
    motorBike_footpeg%60
    {
        type            wall;
        inGroups        2(motorBikeGroup wall);
        nFaces          0;
        startFace       260145;
    }
    motorBike_rr-wh-chain-hub%61
    {
        type            wall;
        inGroups        2(motorBikeGroup wall);
        nFaces          0;
        startFace       260145;
    }
    motorBike_rear-brake-caliper%62
    {
        type            wall;
        inGroups        2(motorBikeGroup wall);
        nFaces          0;
        startFace       260145;
    }
    motorBike_rider-helmet%65
    {
        type            wall;
        inGroups        2(motorBikeGroup wall);
        nFaces          0;
        startFace       260145;
    }
    motorBike_rider-visor%66
    {
        type            wall;
        inGroups        2(motorBikeGroup wall);
        nFaces          0;
        startFace       260145;
    }
    motorBike_rider-boots%67
    {
        type            wall;
        inGroups        2(motorBikeGroup wall);
        nFaces          0;
        startFace       260145;
    }
    motorBike_rider-gloves%68
    {
        type            wall;
        inGroups        2(motorBikeGroup wall);
        nFaces          0;
        startFace       260145;
    }
    motorBike_rider-body%69
    {
        type            wall;
        inGroups        2(motorBikeGroup wall);
        nFaces          0;
        startFace       260145;
    }
    motorBike_frame:0%70
    {
        type            wall;
        inGroups        2(motorBikeGroup wall);
        nFaces          0;
        startFace       260145;
    }
    motorBike_frt-fairing:001-shadow%74
    {
        type            wall;
        inGroups        2(motorBikeGroup wall);
        nFaces          2524;
        startFace       260145;
    }
    motorBike_windshield-shadow%75
    {
        type            wall;
        inGroups        2(motorBikeGroup wall);
        nFaces          0;
        startFace       262669;
    }
    motorBike_fr-mud-guard-shadow%81
    {
        type            wall;
        inGroups        2(motorBikeGroup wall);
        nFaces          0;
        startFace       262669;
    }
    motorBike_fr-wh-brake-disk-shadow%83
    {
        type            wall;
        inGroups        2(motorBikeGroup wall);
        nFaces          0;
        startFace       262669;
    }
    motorBike_rear-mud-guard-shadow%84
    {
        type            wall;
        inGroups        2(motorBikeGroup wall);
        nFaces          0;
        startFace       262669;
    }
    motorBike_rear-susp-spring-damp-shadow%85
    {
        type            wall;
        inGroups        2(motorBikeGroup wall);
        nFaces          0;
        startFace       262669;
    }
    motorBike_radiator-shadow%86
    {
        type            wall;
        inGroups        2(motorBikeGroup wall);
        nFaces          0;
        startFace       262669;
    }
    motorBike_rear-shock-link-shadow%87
    {
        type            wall;
        inGroups        2(motorBikeGroup wall);
        nFaces          0;
        startFace       262669;
    }
    motorBike_rear-brake-fluid-pot-bracket-shadow%88
    {
        type            wall;
        inGroups        2(motorBikeGroup wall);
        nFaces          0;
        startFace       262669;
    }
    motorBike_rr-wh-chain-hub-shadow%89
    {
        type            wall;
        inGroups        2(motorBikeGroup wall);
        nFaces          0;
        startFace       262669;
    }
    procBoundary85to80
    {
        type            processor;
        inGroups        1(processor);
        nFaces          1118;
        startFace       262669;
        matchTolerance  0.0001;
        transform       unknown;
        myProcNo        85;
        neighbProcNo    80;
    }
    procBoundary85to81
    {
        type            processor;
        inGroups        1(processor);
        nFaces          406;
        startFace       263787;
        matchTolerance  0.0001;
        transform       unknown;
        myProcNo        85;
        neighbProcNo    81;
    }
    procBoundary85to82
    {
        type            processor;
        inGroups        1(processor);
        nFaces          600;
        startFace       264193;
        matchTolerance  0.0001;
        transform       unknown;
        myProcNo        85;
        neighbProcNo    82;
    }
    procBoundary85to84
    {
        type            processor;
        inGroups        1(processor);
        nFaces          1722;
        startFace       264793;
        matchTolerance  0.0001;
        transform       unknown;
        myProcNo        85;
        neighbProcNo    84;
    }
    procBoundary85to86
    {
        type            processor;
        inGroups        1(processor);
        nFaces          1926;
        startFace       266515;
        matchTolerance  0.0001;
        transform       unknown;
        myProcNo        85;
        neighbProcNo    86;
    }
    procBoundary85to87
    {
        type            processor;
        inGroups        1(processor);
        nFaces          641;
        startFace       268441;
        matchTolerance  0.0001;
        transform       unknown;
        myProcNo        85;
        neighbProcNo    87;
    }
)

// ************************************************************************* //
