/*--------------------------------*- C++ -*----------------------------------*\
| =========                 |                                                 |
| \\      /  F ield         | OpenFOAM: The Open Source CFD Toolbox           |
|  \\    /   O peration     | Version:  v1712                                 |
|   \\  /    A nd           | Web:      www.OpenFOAM.com                      |
|    \\/     M anipulation  |                                                 |
\*---------------------------------------------------------------------------*/
FoamFile
{
    version     2.0;
    format      binary;
    class       volScalarField;
    arch        "LSB;label=32;scalar=64";
    location    "0";
    object      p;
}
// * * * * * * * * * * * * * * * * * * * * * * * * * * * * * * * * * * * * * //

dimensions      [0 2 -2 0 0 0 0];


internalField   uniform 0;

boundaryField
{
    frontAndBack
    {
        type            slip;
    }
    inlet
    {
        type            zeroGradient;
    }
    outlet
    {
        type            fixedValue;
        value           uniform 0;
    }
    lowerWall
    {
        type            zeroGradient;
    }
    upperWall
    {
        type            slip;
    }
    motorBike_frt-fairing:001%1
    {
        type            zeroGradient;
    }
    motorBike_windshield:002%2
    {
        type            zeroGradient;
    }
    motorBike_rr-wh-rim:005%5
    {
        type            zeroGradient;
    }
    motorBike_rr-wh-rim:010%10
    {
        type            zeroGradient;
    }
    motorBike_fr-wh-rim:011%11
    {
        type            zeroGradient;
    }
    motorBike_fr-wh-brake-disk:012%12
    {
        type            zeroGradient;
    }
    motorBike_frame:016-shadow%13
    {
        type            zeroGradient;
    }
    motorBike_rear-susp:014%14
    {
        type            zeroGradient;
    }
    motorBike_rear-susp:014-shadow%15
    {
        type            zeroGradient;
    }
    motorBike_frame:016%16
    {
        type            zeroGradient;
    }
    motorBike_rr-wh-rim:005-shadow%17
    {
        type            zeroGradient;
    }
    motorBike_rr-wh-chain-hub:022%22
    {
        type            zeroGradient;
    }
    motorBike_rearseat%24
    {
        type            zeroGradient;
    }
    motorBike_frt-fairing%25
    {
        type            zeroGradient;
    }
    motorBike_windshield%26
    {
        type            zeroGradient;
    }
    motorBike_headlights%27
    {
        type            zeroGradient;
    }
    motorBike_driversseat%28
    {
        type            zeroGradient;
    }
    motorBike_rear-body%29
    {
        type            zeroGradient;
    }
    motorBike_fuel-tank%30
    {
        type            zeroGradient;
    }
    motorBike_exhaust%31
    {
        type            zeroGradient;
    }
    motorBike_rr-wh-rim%32
    {
        type            zeroGradient;
    }
    motorBike_fr-mud-guard%33
    {
        type            zeroGradient;
    }
    motorBike_fr-wh-rim%34
    {
        type            zeroGradient;
    }
    motorBike_fr-wh-brake-disk%35
    {
        type            zeroGradient;
    }
    motorBike_fr-brake-caliper%36
    {
        type            zeroGradient;
    }
    motorBike_fr-wh-tyre%37
    {
        type            zeroGradient;
    }
    motorBike_hbars%38
    {
        type            zeroGradient;
    }
    motorBike_fr-forks%39
    {
        type            zeroGradient;
    }
    motorBike_chain%40
    {
        type            zeroGradient;
    }
    motorBike_rr-wh-tyre%41
    {
        type            zeroGradient;
    }
    motorBike_square-dial%42
    {
        type            zeroGradient;
    }
    motorBike_round-dial%43
    {
        type            zeroGradient;
    }
    motorBike_dial-holder%44
    {
        type            zeroGradient;
    }
    motorBike_rear-susp%45
    {
        type            zeroGradient;
    }
    motorBike_rear-brake-lights%46
    {
        type            zeroGradient;
    }
    motorBike_rear-light-bracket%47
    {
        type            zeroGradient;
    }
    motorBike_frame%48
    {
        type            zeroGradient;
    }
    motorBike_rear-mud-guard%49
    {
        type            zeroGradient;
    }
    motorBike_rear-susp-spring-damp%50
    {
        type            zeroGradient;
    }
    motorBike_fairing-inner-plate%51
    {
        type            zeroGradient;
    }
    motorBike_clutch-housing%52
    {
        type            zeroGradient;
    }
    motorBike_radiator%53
    {
        type            zeroGradient;
    }
    motorBike_water-pipe%54
    {
        type            zeroGradient;
    }
    motorBike_water-pump%55
    {
        type            zeroGradient;
    }
    motorBike_engine%56
    {
        type            zeroGradient;
    }
    motorBike_rear-shock-link%57
    {
        type            zeroGradient;
    }
    motorBike_rear-brake-fluid-pot-bracket%58
    {
        type            zeroGradient;
    }
    motorBike_rear-brake-fluid-pot%59
    {
        type            zeroGradient;
    }
    motorBike_footpeg%60
    {
        type            zeroGradient;
    }
    motorBike_rr-wh-chain-hub%61
    {
        type            zeroGradient;
    }
    motorBike_rear-brake-caliper%62
    {
        type            zeroGradient;
    }
    motorBike_rider-helmet%65
    {
        type            zeroGradient;
    }
    motorBike_rider-visor%66
    {
        type            zeroGradient;
    }
    motorBike_rider-boots%67
    {
        type            zeroGradient;
    }
    motorBike_rider-gloves%68
    {
        type            zeroGradient;
    }
    motorBike_rider-body%69
    {
        type            zeroGradient;
    }
    motorBike_frame:0%70
    {
        type            zeroGradient;
    }
    motorBike_frt-fairing:001-shadow%74
    {
        type            zeroGradient;
    }
    motorBike_windshield-shadow%75
    {
        type            zeroGradient;
    }
    motorBike_fr-mud-guard-shadow%81
    {
        type            zeroGradient;
    }
    motorBike_fr-wh-brake-disk-shadow%83
    {
        type            zeroGradient;
    }
    motorBike_rear-mud-guard-shadow%84
    {
        type            zeroGradient;
    }
    motorBike_rear-susp-spring-damp-shadow%85
    {
        type            zeroGradient;
    }
    motorBike_radiator-shadow%86
    {
        type            zeroGradient;
    }
    motorBike_rear-shock-link-shadow%87
    {
        type            zeroGradient;
    }
    motorBike_rear-brake-fluid-pot-bracket-shadow%88
    {
        type            zeroGradient;
    }
    motorBike_rr-wh-chain-hub-shadow%89
    {
        type            zeroGradient;
    }
    procBoundary16to17
    {
        type            processor;
        value           uniform 0;
    }
    procBoundary16to18
    {
        type            processor;
        value           uniform 0;
    }
    procBoundary16to19
    {
        type            processor;
        value           uniform 0;
    }
    procBoundary16to20
    {
        type            processor;
        value           uniform 0;
    }
    procBoundary16to22
    {
        type            processor;
        value           uniform 0;
    }
    procBoundary16to24
    {
        type            processor;
        value           uniform 0;
    }
    procBoundary16to26
    {
        type            processor;
        value           uniform 0;
    }
    procBoundary16to27
    {
        type            processor;
        value           uniform 0;
    }
    procBoundary16to28
    {
        type            processor;
        value           uniform 0;
    }
    procBoundary16to29
    {
        type            processor;
        value           uniform 0;
    }
    procBoundary16to30
    {
        type            processor;
        value           uniform 0;
    }
    procBoundary16to31
    {
        type            processor;
        value           uniform 0;
    }
    procBoundary16to32
    {
        type            processor;
        value           uniform 0;
    }
    procBoundary16to37
    {
        type            processor;
        value           uniform 0;
    }
    procBoundary16to39
    {
        type            processor;
        value           uniform 0;
    }
    procBoundary16to50
    {
        type            processor;
        value           uniform 0;
    }
    procBoundary16to51
    {
        type            processor;
        value           uniform 0;
    }
    procBoundary16to56
    {
        type            processor;
        value           uniform 0;
    }
    procBoundary16to57
    {
        type            processor;
        value           uniform 0;
    }
    procBoundary16to58
    {
        type            processor;
        value           uniform 0;
    }
    procBoundary16to64
    {
        type            processor;
        value           uniform 0;
    }
    procBoundary16to72
    {
        type            processor;
        value           uniform 0;
    }
    procBoundary16to73
    {
        type            processor;
        value           uniform 0;
    }
    procBoundary16to74
    {
        type            processor;
        value           uniform 0;
    }
    procBoundary16to90
    {
        type            processor;
        value           uniform 0;
    }
    procBoundary16to92
    {
        type            processor;
        value           uniform 0;
    }
    procBoundary16to93
    {
        type            processor;
        value           uniform 0;
    }
    procBoundary16to96
    {
        type            processor;
        value           uniform 0;
    }
    procBoundary16to97
    {
        type            processor;
        value           uniform 0;
    }
    procBoundary16to98
    {
        type            processor;
        value           uniform 0;
    }
    procBoundary16to99
    {
        type            processor;
        value           uniform 0;
    }
    procBoundary16to105
    {
        type            processor;
        value           uniform 0;
    }
    procBoundary16to111
    {
        type            processor;
        value           uniform 0;
    }
    procBoundary16to113
    {
        type            processor;
        value           uniform 0;
    }
    procBoundary16to114
    {
        type            processor;
        value           uniform 0;
    }
    procBoundary16to124
    {
        type            processor;
        value           uniform 0;
    }
    procBoundary16to125
    {
        type            processor;
        value           uniform 0;
    }
}


// ************************************************************************* //
