/*--------------------------------*- C++ -*----------------------------------*\
| =========                 |                                                 |
| \\      /  F ield         | OpenFOAM: The Open Source CFD Toolbox           |
|  \\    /   O peration     | Version:  v1712                                 |
|   \\  /    A nd           | Web:      www.OpenFOAM.com                      |
|    \\/     M anipulation  |                                                 |
\*---------------------------------------------------------------------------*/
FoamFile
{
    version     2.0;
    format      binary;
    class       polyBoundaryMesh;
    arch        "LSB;label=32;scalar=64";
    location    "constant/polyMesh";
    object      boundary;
}
// * * * * * * * * * * * * * * * * * * * * * * * * * * * * * * * * * * * * * //

109
(
    frontAndBack
    {
        type            patch;
        nFaces          360;
        startFace       252383;
    }
    inlet
    {
        type            patch;
        nFaces          72;
        startFace       252743;
    }
    outlet
    {
        type            patch;
        nFaces          72;
        startFace       252815;
    }
    lowerWall
    {
        type            wall;
        inGroups        1(wall);
        nFaces          910;
        startFace       252887;
    }
    upperWall
    {
        type            patch;
        nFaces          160;
        startFace       253797;
    }
    motorBike_frt-fairing:001%1
    {
        type            wall;
        inGroups        2(motorBikeGroup wall);
        nFaces          0;
        startFace       253957;
    }
    motorBike_windshield:002%2
    {
        type            wall;
        inGroups        2(motorBikeGroup wall);
        nFaces          0;
        startFace       253957;
    }
    motorBike_rr-wh-rim:005%5
    {
        type            wall;
        inGroups        2(motorBikeGroup wall);
        nFaces          0;
        startFace       253957;
    }
    motorBike_rr-wh-rim:010%10
    {
        type            wall;
        inGroups        2(motorBikeGroup wall);
        nFaces          0;
        startFace       253957;
    }
    motorBike_fr-wh-rim:011%11
    {
        type            wall;
        inGroups        2(motorBikeGroup wall);
        nFaces          0;
        startFace       253957;
    }
    motorBike_fr-wh-brake-disk:012%12
    {
        type            wall;
        inGroups        2(motorBikeGroup wall);
        nFaces          0;
        startFace       253957;
    }
    motorBike_frame:016-shadow%13
    {
        type            wall;
        inGroups        2(motorBikeGroup wall);
        nFaces          0;
        startFace       253957;
    }
    motorBike_rear-susp:014%14
    {
        type            wall;
        inGroups        2(motorBikeGroup wall);
        nFaces          0;
        startFace       253957;
    }
    motorBike_rear-susp:014-shadow%15
    {
        type            wall;
        inGroups        2(motorBikeGroup wall);
        nFaces          0;
        startFace       253957;
    }
    motorBike_frame:016%16
    {
        type            wall;
        inGroups        2(motorBikeGroup wall);
        nFaces          0;
        startFace       253957;
    }
    motorBike_rr-wh-rim:005-shadow%17
    {
        type            wall;
        inGroups        2(motorBikeGroup wall);
        nFaces          0;
        startFace       253957;
    }
    motorBike_rr-wh-chain-hub:022%22
    {
        type            wall;
        inGroups        2(motorBikeGroup wall);
        nFaces          0;
        startFace       253957;
    }
    motorBike_rearseat%24
    {
        type            wall;
        inGroups        2(motorBikeGroup wall);
        nFaces          0;
        startFace       253957;
    }
    motorBike_frt-fairing%25
    {
        type            wall;
        inGroups        2(motorBikeGroup wall);
        nFaces          0;
        startFace       253957;
    }
    motorBike_windshield%26
    {
        type            wall;
        inGroups        2(motorBikeGroup wall);
        nFaces          0;
        startFace       253957;
    }
    motorBike_headlights%27
    {
        type            wall;
        inGroups        2(motorBikeGroup wall);
        nFaces          0;
        startFace       253957;
    }
    motorBike_driversseat%28
    {
        type            wall;
        inGroups        2(motorBikeGroup wall);
        nFaces          0;
        startFace       253957;
    }
    motorBike_rear-body%29
    {
        type            wall;
        inGroups        2(motorBikeGroup wall);
        nFaces          0;
        startFace       253957;
    }
    motorBike_fuel-tank%30
    {
        type            wall;
        inGroups        2(motorBikeGroup wall);
        nFaces          982;
        startFace       253957;
    }
    motorBike_exhaust%31
    {
        type            wall;
        inGroups        2(motorBikeGroup wall);
        nFaces          0;
        startFace       254939;
    }
    motorBike_rr-wh-rim%32
    {
        type            wall;
        inGroups        2(motorBikeGroup wall);
        nFaces          0;
        startFace       254939;
    }
    motorBike_fr-mud-guard%33
    {
        type            wall;
        inGroups        2(motorBikeGroup wall);
        nFaces          0;
        startFace       254939;
    }
    motorBike_fr-wh-rim%34
    {
        type            wall;
        inGroups        2(motorBikeGroup wall);
        nFaces          0;
        startFace       254939;
    }
    motorBike_fr-wh-brake-disk%35
    {
        type            wall;
        inGroups        2(motorBikeGroup wall);
        nFaces          0;
        startFace       254939;
    }
    motorBike_fr-brake-caliper%36
    {
        type            wall;
        inGroups        2(motorBikeGroup wall);
        nFaces          0;
        startFace       254939;
    }
    motorBike_fr-wh-tyre%37
    {
        type            wall;
        inGroups        2(motorBikeGroup wall);
        nFaces          0;
        startFace       254939;
    }
    motorBike_hbars%38
    {
        type            wall;
        inGroups        2(motorBikeGroup wall);
        nFaces          0;
        startFace       254939;
    }
    motorBike_fr-forks%39
    {
        type            wall;
        inGroups        2(motorBikeGroup wall);
        nFaces          0;
        startFace       254939;
    }
    motorBike_chain%40
    {
        type            wall;
        inGroups        2(motorBikeGroup wall);
        nFaces          0;
        startFace       254939;
    }
    motorBike_rr-wh-tyre%41
    {
        type            wall;
        inGroups        2(motorBikeGroup wall);
        nFaces          0;
        startFace       254939;
    }
    motorBike_square-dial%42
    {
        type            wall;
        inGroups        2(motorBikeGroup wall);
        nFaces          0;
        startFace       254939;
    }
    motorBike_round-dial%43
    {
        type            wall;
        inGroups        2(motorBikeGroup wall);
        nFaces          0;
        startFace       254939;
    }
    motorBike_dial-holder%44
    {
        type            wall;
        inGroups        2(motorBikeGroup wall);
        nFaces          0;
        startFace       254939;
    }
    motorBike_rear-susp%45
    {
        type            wall;
        inGroups        2(motorBikeGroup wall);
        nFaces          0;
        startFace       254939;
    }
    motorBike_rear-brake-lights%46
    {
        type            wall;
        inGroups        2(motorBikeGroup wall);
        nFaces          0;
        startFace       254939;
    }
    motorBike_rear-light-bracket%47
    {
        type            wall;
        inGroups        2(motorBikeGroup wall);
        nFaces          0;
        startFace       254939;
    }
    motorBike_frame%48
    {
        type            wall;
        inGroups        2(motorBikeGroup wall);
        nFaces          0;
        startFace       254939;
    }
    motorBike_rear-mud-guard%49
    {
        type            wall;
        inGroups        2(motorBikeGroup wall);
        nFaces          0;
        startFace       254939;
    }
    motorBike_rear-susp-spring-damp%50
    {
        type            wall;
        inGroups        2(motorBikeGroup wall);
        nFaces          0;
        startFace       254939;
    }
    motorBike_fairing-inner-plate%51
    {
        type            wall;
        inGroups        2(motorBikeGroup wall);
        nFaces          0;
        startFace       254939;
    }
    motorBike_clutch-housing%52
    {
        type            wall;
        inGroups        2(motorBikeGroup wall);
        nFaces          0;
        startFace       254939;
    }
    motorBike_radiator%53
    {
        type            wall;
        inGroups        2(motorBikeGroup wall);
        nFaces          0;
        startFace       254939;
    }
    motorBike_water-pipe%54
    {
        type            wall;
        inGroups        2(motorBikeGroup wall);
        nFaces          0;
        startFace       254939;
    }
    motorBike_water-pump%55
    {
        type            wall;
        inGroups        2(motorBikeGroup wall);
        nFaces          0;
        startFace       254939;
    }
    motorBike_engine%56
    {
        type            wall;
        inGroups        2(motorBikeGroup wall);
        nFaces          0;
        startFace       254939;
    }
    motorBike_rear-shock-link%57
    {
        type            wall;
        inGroups        2(motorBikeGroup wall);
        nFaces          0;
        startFace       254939;
    }
    motorBike_rear-brake-fluid-pot-bracket%58
    {
        type            wall;
        inGroups        2(motorBikeGroup wall);
        nFaces          0;
        startFace       254939;
    }
    motorBike_rear-brake-fluid-pot%59
    {
        type            wall;
        inGroups        2(motorBikeGroup wall);
        nFaces          0;
        startFace       254939;
    }
    motorBike_footpeg%60
    {
        type            wall;
        inGroups        2(motorBikeGroup wall);
        nFaces          0;
        startFace       254939;
    }
    motorBike_rr-wh-chain-hub%61
    {
        type            wall;
        inGroups        2(motorBikeGroup wall);
        nFaces          0;
        startFace       254939;
    }
    motorBike_rear-brake-caliper%62
    {
        type            wall;
        inGroups        2(motorBikeGroup wall);
        nFaces          0;
        startFace       254939;
    }
    motorBike_rider-helmet%65
    {
        type            wall;
        inGroups        2(motorBikeGroup wall);
        nFaces          0;
        startFace       254939;
    }
    motorBike_rider-visor%66
    {
        type            wall;
        inGroups        2(motorBikeGroup wall);
        nFaces          0;
        startFace       254939;
    }
    motorBike_rider-boots%67
    {
        type            wall;
        inGroups        2(motorBikeGroup wall);
        nFaces          0;
        startFace       254939;
    }
    motorBike_rider-gloves%68
    {
        type            wall;
        inGroups        2(motorBikeGroup wall);
        nFaces          0;
        startFace       254939;
    }
    motorBike_rider-body%69
    {
        type            wall;
        inGroups        2(motorBikeGroup wall);
        nFaces          8541;
        startFace       254939;
    }
    motorBike_frame:0%70
    {
        type            wall;
        inGroups        2(motorBikeGroup wall);
        nFaces          0;
        startFace       263480;
    }
    motorBike_frt-fairing:001-shadow%74
    {
        type            wall;
        inGroups        2(motorBikeGroup wall);
        nFaces          0;
        startFace       263480;
    }
    motorBike_windshield-shadow%75
    {
        type            wall;
        inGroups        2(motorBikeGroup wall);
        nFaces          0;
        startFace       263480;
    }
    motorBike_fr-mud-guard-shadow%81
    {
        type            wall;
        inGroups        2(motorBikeGroup wall);
        nFaces          0;
        startFace       263480;
    }
    motorBike_fr-wh-brake-disk-shadow%83
    {
        type            wall;
        inGroups        2(motorBikeGroup wall);
        nFaces          0;
        startFace       263480;
    }
    motorBike_rear-mud-guard-shadow%84
    {
        type            wall;
        inGroups        2(motorBikeGroup wall);
        nFaces          0;
        startFace       263480;
    }
    motorBike_rear-susp-spring-damp-shadow%85
    {
        type            wall;
        inGroups        2(motorBikeGroup wall);
        nFaces          0;
        startFace       263480;
    }
    motorBike_radiator-shadow%86
    {
        type            wall;
        inGroups        2(motorBikeGroup wall);
        nFaces          0;
        startFace       263480;
    }
    motorBike_rear-shock-link-shadow%87
    {
        type            wall;
        inGroups        2(motorBikeGroup wall);
        nFaces          0;
        startFace       263480;
    }
    motorBike_rear-brake-fluid-pot-bracket-shadow%88
    {
        type            wall;
        inGroups        2(motorBikeGroup wall);
        nFaces          0;
        startFace       263480;
    }
    motorBike_rr-wh-chain-hub-shadow%89
    {
        type            wall;
        inGroups        2(motorBikeGroup wall);
        nFaces          0;
        startFace       263480;
    }
    procBoundary16to17
    {
        type            processor;
        inGroups        1(processor);
        nFaces          1235;
        startFace       263480;
        matchTolerance  0.0001;
        transform       unknown;
        myProcNo        16;
        neighbProcNo    17;
    }
    procBoundary16to18
    {
        type            processor;
        inGroups        1(processor);
        nFaces          1175;
        startFace       264715;
        matchTolerance  0.0001;
        transform       unknown;
        myProcNo        16;
        neighbProcNo    18;
    }
    procBoundary16to19
    {
        type            processor;
        inGroups        1(processor);
        nFaces          1020;
        startFace       265890;
        matchTolerance  0.0001;
        transform       unknown;
        myProcNo        16;
        neighbProcNo    19;
    }
    procBoundary16to20
    {
        type            processor;
        inGroups        1(processor);
        nFaces          1742;
        startFace       266910;
        matchTolerance  0.0001;
        transform       unknown;
        myProcNo        16;
        neighbProcNo    20;
    }
    procBoundary16to22
    {
        type            processor;
        inGroups        1(processor);
        nFaces          150;
        startFace       268652;
        matchTolerance  0.0001;
        transform       unknown;
        myProcNo        16;
        neighbProcNo    22;
    }
    procBoundary16to24
    {
        type            processor;
        inGroups        1(processor);
        nFaces          133;
        startFace       268802;
        matchTolerance  0.0001;
        transform       unknown;
        myProcNo        16;
        neighbProcNo    24;
    }
    procBoundary16to26
    {
        type            processor;
        inGroups        1(processor);
        nFaces          1;
        startFace       268935;
        matchTolerance  0.0001;
        transform       unknown;
        myProcNo        16;
        neighbProcNo    26;
    }
    procBoundary16to27
    {
        type            processor;
        inGroups        1(processor);
        nFaces          66;
        startFace       268936;
        matchTolerance  0.0001;
        transform       unknown;
        myProcNo        16;
        neighbProcNo    27;
    }
    procBoundary16to28
    {
        type            processor;
        inGroups        1(processor);
        nFaces          94;
        startFace       269002;
        matchTolerance  0.0001;
        transform       unknown;
        myProcNo        16;
        neighbProcNo    28;
    }
    procBoundary16to29
    {
        type            processor;
        inGroups        1(processor);
        nFaces          15;
        startFace       269096;
        matchTolerance  0.0001;
        transform       unknown;
        myProcNo        16;
        neighbProcNo    29;
    }
    procBoundary16to30
    {
        type            processor;
        inGroups        1(processor);
        nFaces          204;
        startFace       269111;
        matchTolerance  0.0001;
        transform       unknown;
        myProcNo        16;
        neighbProcNo    30;
    }
    procBoundary16to31
    {
        type            processor;
        inGroups        1(processor);
        nFaces          59;
        startFace       269315;
        matchTolerance  0.0001;
        transform       unknown;
        myProcNo        16;
        neighbProcNo    31;
    }
    procBoundary16to32
    {
        type            processor;
        inGroups        1(processor);
        nFaces          118;
        startFace       269374;
        matchTolerance  0.0001;
        transform       unknown;
        myProcNo        16;
        neighbProcNo    32;
    }
    procBoundary16to37
    {
        type            processor;
        inGroups        1(processor);
        nFaces          17;
        startFace       269492;
        matchTolerance  0.0001;
        transform       unknown;
        myProcNo        16;
        neighbProcNo    37;
    }
    procBoundary16to39
    {
        type            processor;
        inGroups        1(processor);
        nFaces          4;
        startFace       269509;
        matchTolerance  0.0001;
        transform       unknown;
        myProcNo        16;
        neighbProcNo    39;
    }
    procBoundary16to50
    {
        type            processor;
        inGroups        1(processor);
        nFaces          233;
        startFace       269513;
        matchTolerance  0.0001;
        transform       unknown;
        myProcNo        16;
        neighbProcNo    50;
    }
    procBoundary16to51
    {
        type            processor;
        inGroups        1(processor);
        nFaces          114;
        startFace       269746;
        matchTolerance  0.0001;
        transform       unknown;
        myProcNo        16;
        neighbProcNo    51;
    }
    procBoundary16to56
    {
        type            processor;
        inGroups        1(processor);
        nFaces          101;
        startFace       269860;
        matchTolerance  0.0001;
        transform       unknown;
        myProcNo        16;
        neighbProcNo    56;
    }
    procBoundary16to57
    {
        type            processor;
        inGroups        1(processor);
        nFaces          119;
        startFace       269961;
        matchTolerance  0.0001;
        transform       unknown;
        myProcNo        16;
        neighbProcNo    57;
    }
    procBoundary16to58
    {
        type            processor;
        inGroups        1(processor);
        nFaces          56;
        startFace       270080;
        matchTolerance  0.0001;
        transform       unknown;
        myProcNo        16;
        neighbProcNo    58;
    }
    procBoundary16to64
    {
        type            processor;
        inGroups        1(processor);
        nFaces          492;
        startFace       270136;
        matchTolerance  0.0001;
        transform       unknown;
        myProcNo        16;
        neighbProcNo    64;
    }
    procBoundary16to72
    {
        type            processor;
        inGroups        1(processor);
        nFaces          28;
        startFace       270628;
        matchTolerance  0.0001;
        transform       unknown;
        myProcNo        16;
        neighbProcNo    72;
    }
    procBoundary16to73
    {
        type            processor;
        inGroups        1(processor);
        nFaces          6;
        startFace       270656;
        matchTolerance  0.0001;
        transform       unknown;
        myProcNo        16;
        neighbProcNo    73;
    }
    procBoundary16to74
    {
        type            processor;
        inGroups        1(processor);
        nFaces          16;
        startFace       270662;
        matchTolerance  0.0001;
        transform       unknown;
        myProcNo        16;
        neighbProcNo    74;
    }
    procBoundary16to90
    {
        type            processor;
        inGroups        1(processor);
        nFaces          56;
        startFace       270678;
        matchTolerance  0.0001;
        transform       unknown;
        myProcNo        16;
        neighbProcNo    90;
    }
    procBoundary16to92
    {
        type            processor;
        inGroups        1(processor);
        nFaces          36;
        startFace       270734;
        matchTolerance  0.0001;
        transform       unknown;
        myProcNo        16;
        neighbProcNo    92;
    }
    procBoundary16to93
    {
        type            processor;
        inGroups        1(processor);
        nFaces          9;
        startFace       270770;
        matchTolerance  0.0001;
        transform       unknown;
        myProcNo        16;
        neighbProcNo    93;
    }
    procBoundary16to96
    {
        type            processor;
        inGroups        1(processor);
        nFaces          183;
        startFace       270779;
        matchTolerance  0.0001;
        transform       unknown;
        myProcNo        16;
        neighbProcNo    96;
    }
    procBoundary16to97
    {
        type            processor;
        inGroups        1(processor);
        nFaces          7;
        startFace       270962;
        matchTolerance  0.0001;
        transform       unknown;
        myProcNo        16;
        neighbProcNo    97;
    }
    procBoundary16to98
    {
        type            processor;
        inGroups        1(processor);
        nFaces          84;
        startFace       270969;
        matchTolerance  0.0001;
        transform       unknown;
        myProcNo        16;
        neighbProcNo    98;
    }
    procBoundary16to99
    {
        type            processor;
        inGroups        1(processor);
        nFaces          55;
        startFace       271053;
        matchTolerance  0.0001;
        transform       unknown;
        myProcNo        16;
        neighbProcNo    99;
    }
    procBoundary16to105
    {
        type            processor;
        inGroups        1(processor);
        nFaces          21;
        startFace       271108;
        matchTolerance  0.0001;
        transform       unknown;
        myProcNo        16;
        neighbProcNo    105;
    }
    procBoundary16to111
    {
        type            processor;
        inGroups        1(processor);
        nFaces          204;
        startFace       271129;
        matchTolerance  0.0001;
        transform       unknown;
        myProcNo        16;
        neighbProcNo    111;
    }
    procBoundary16to113
    {
        type            processor;
        inGroups        1(processor);
        nFaces          109;
        startFace       271333;
        matchTolerance  0.0001;
        transform       unknown;
        myProcNo        16;
        neighbProcNo    113;
    }
    procBoundary16to114
    {
        type            processor;
        inGroups        1(processor);
        nFaces          171;
        startFace       271442;
        matchTolerance  0.0001;
        transform       unknown;
        myProcNo        16;
        neighbProcNo    114;
    }
    procBoundary16to124
    {
        type            processor;
        inGroups        1(processor);
        nFaces          630;
        startFace       271613;
        matchTolerance  0.0001;
        transform       unknown;
        myProcNo        16;
        neighbProcNo    124;
    }
    procBoundary16to125
    {
        type            processor;
        inGroups        1(processor);
        nFaces          9;
        startFace       272243;
        matchTolerance  0.0001;
        transform       unknown;
        myProcNo        16;
        neighbProcNo    125;
    }
)

// ************************************************************************* //
