/*--------------------------------*- C++ -*----------------------------------*\
| =========                 |                                                 |
| \\      /  F ield         | OpenFOAM: The Open Source CFD Toolbox           |
|  \\    /   O peration     | Version:  v1712                                 |
|   \\  /    A nd           | Web:      www.OpenFOAM.com                      |
|    \\/     M anipulation  |                                                 |
\*---------------------------------------------------------------------------*/
FoamFile
{
    version     2.0;
    format      binary;
    class       polyBoundaryMesh;
    arch        "LSB;label=32;scalar=64";
    location    "constant/polyMesh";
    object      boundary;
}
// * * * * * * * * * * * * * * * * * * * * * * * * * * * * * * * * * * * * * //

82
(
    frontAndBack
    {
        type            patch;
        nFaces          0;
        startFace       246672;
    }
    inlet
    {
        type            patch;
        nFaces          0;
        startFace       246672;
    }
    outlet
    {
        type            patch;
        nFaces          0;
        startFace       246672;
    }
    lowerWall
    {
        type            wall;
        inGroups        1(wall);
        nFaces          0;
        startFace       246672;
    }
    upperWall
    {
        type            patch;
        nFaces          0;
        startFace       246672;
    }
    motorBike_frt-fairing:001%1
    {
        type            wall;
        inGroups        2(motorBikeGroup wall);
        nFaces          0;
        startFace       246672;
    }
    motorBike_windshield:002%2
    {
        type            wall;
        inGroups        2(motorBikeGroup wall);
        nFaces          0;
        startFace       246672;
    }
    motorBike_rr-wh-rim:005%5
    {
        type            wall;
        inGroups        2(motorBikeGroup wall);
        nFaces          0;
        startFace       246672;
    }
    motorBike_rr-wh-rim:010%10
    {
        type            wall;
        inGroups        2(motorBikeGroup wall);
        nFaces          0;
        startFace       246672;
    }
    motorBike_fr-wh-rim:011%11
    {
        type            wall;
        inGroups        2(motorBikeGroup wall);
        nFaces          427;
        startFace       246672;
    }
    motorBike_fr-wh-brake-disk:012%12
    {
        type            wall;
        inGroups        2(motorBikeGroup wall);
        nFaces          467;
        startFace       247099;
    }
    motorBike_frame:016-shadow%13
    {
        type            wall;
        inGroups        2(motorBikeGroup wall);
        nFaces          0;
        startFace       247566;
    }
    motorBike_rear-susp:014%14
    {
        type            wall;
        inGroups        2(motorBikeGroup wall);
        nFaces          0;
        startFace       247566;
    }
    motorBike_rear-susp:014-shadow%15
    {
        type            wall;
        inGroups        2(motorBikeGroup wall);
        nFaces          0;
        startFace       247566;
    }
    motorBike_frame:016%16
    {
        type            wall;
        inGroups        2(motorBikeGroup wall);
        nFaces          0;
        startFace       247566;
    }
    motorBike_rr-wh-rim:005-shadow%17
    {
        type            wall;
        inGroups        2(motorBikeGroup wall);
        nFaces          0;
        startFace       247566;
    }
    motorBike_rr-wh-chain-hub:022%22
    {
        type            wall;
        inGroups        2(motorBikeGroup wall);
        nFaces          0;
        startFace       247566;
    }
    motorBike_rearseat%24
    {
        type            wall;
        inGroups        2(motorBikeGroup wall);
        nFaces          0;
        startFace       247566;
    }
    motorBike_frt-fairing%25
    {
        type            wall;
        inGroups        2(motorBikeGroup wall);
        nFaces          0;
        startFace       247566;
    }
    motorBike_windshield%26
    {
        type            wall;
        inGroups        2(motorBikeGroup wall);
        nFaces          0;
        startFace       247566;
    }
    motorBike_headlights%27
    {
        type            wall;
        inGroups        2(motorBikeGroup wall);
        nFaces          0;
        startFace       247566;
    }
    motorBike_driversseat%28
    {
        type            wall;
        inGroups        2(motorBikeGroup wall);
        nFaces          0;
        startFace       247566;
    }
    motorBike_rear-body%29
    {
        type            wall;
        inGroups        2(motorBikeGroup wall);
        nFaces          0;
        startFace       247566;
    }
    motorBike_fuel-tank%30
    {
        type            wall;
        inGroups        2(motorBikeGroup wall);
        nFaces          0;
        startFace       247566;
    }
    motorBike_exhaust%31
    {
        type            wall;
        inGroups        2(motorBikeGroup wall);
        nFaces          0;
        startFace       247566;
    }
    motorBike_rr-wh-rim%32
    {
        type            wall;
        inGroups        2(motorBikeGroup wall);
        nFaces          0;
        startFace       247566;
    }
    motorBike_fr-mud-guard%33
    {
        type            wall;
        inGroups        2(motorBikeGroup wall);
        nFaces          2511;
        startFace       247566;
    }
    motorBike_fr-wh-rim%34
    {
        type            wall;
        inGroups        2(motorBikeGroup wall);
        nFaces          47;
        startFace       250077;
    }
    motorBike_fr-wh-brake-disk%35
    {
        type            wall;
        inGroups        2(motorBikeGroup wall);
        nFaces          4235;
        startFace       250124;
    }
    motorBike_fr-brake-caliper%36
    {
        type            wall;
        inGroups        2(motorBikeGroup wall);
        nFaces          0;
        startFace       254359;
    }
    motorBike_fr-wh-tyre%37
    {
        type            wall;
        inGroups        2(motorBikeGroup wall);
        nFaces          0;
        startFace       254359;
    }
    motorBike_hbars%38
    {
        type            wall;
        inGroups        2(motorBikeGroup wall);
        nFaces          0;
        startFace       254359;
    }
    motorBike_fr-forks%39
    {
        type            wall;
        inGroups        2(motorBikeGroup wall);
        nFaces          3499;
        startFace       254359;
    }
    motorBike_chain%40
    {
        type            wall;
        inGroups        2(motorBikeGroup wall);
        nFaces          0;
        startFace       257858;
    }
    motorBike_rr-wh-tyre%41
    {
        type            wall;
        inGroups        2(motorBikeGroup wall);
        nFaces          0;
        startFace       257858;
    }
    motorBike_square-dial%42
    {
        type            wall;
        inGroups        2(motorBikeGroup wall);
        nFaces          0;
        startFace       257858;
    }
    motorBike_round-dial%43
    {
        type            wall;
        inGroups        2(motorBikeGroup wall);
        nFaces          0;
        startFace       257858;
    }
    motorBike_dial-holder%44
    {
        type            wall;
        inGroups        2(motorBikeGroup wall);
        nFaces          0;
        startFace       257858;
    }
    motorBike_rear-susp%45
    {
        type            wall;
        inGroups        2(motorBikeGroup wall);
        nFaces          0;
        startFace       257858;
    }
    motorBike_rear-brake-lights%46
    {
        type            wall;
        inGroups        2(motorBikeGroup wall);
        nFaces          0;
        startFace       257858;
    }
    motorBike_rear-light-bracket%47
    {
        type            wall;
        inGroups        2(motorBikeGroup wall);
        nFaces          0;
        startFace       257858;
    }
    motorBike_frame%48
    {
        type            wall;
        inGroups        2(motorBikeGroup wall);
        nFaces          0;
        startFace       257858;
    }
    motorBike_rear-mud-guard%49
    {
        type            wall;
        inGroups        2(motorBikeGroup wall);
        nFaces          0;
        startFace       257858;
    }
    motorBike_rear-susp-spring-damp%50
    {
        type            wall;
        inGroups        2(motorBikeGroup wall);
        nFaces          0;
        startFace       257858;
    }
    motorBike_fairing-inner-plate%51
    {
        type            wall;
        inGroups        2(motorBikeGroup wall);
        nFaces          0;
        startFace       257858;
    }
    motorBike_clutch-housing%52
    {
        type            wall;
        inGroups        2(motorBikeGroup wall);
        nFaces          0;
        startFace       257858;
    }
    motorBike_radiator%53
    {
        type            wall;
        inGroups        2(motorBikeGroup wall);
        nFaces          0;
        startFace       257858;
    }
    motorBike_water-pipe%54
    {
        type            wall;
        inGroups        2(motorBikeGroup wall);
        nFaces          0;
        startFace       257858;
    }
    motorBike_water-pump%55
    {
        type            wall;
        inGroups        2(motorBikeGroup wall);
        nFaces          0;
        startFace       257858;
    }
    motorBike_engine%56
    {
        type            wall;
        inGroups        2(motorBikeGroup wall);
        nFaces          0;
        startFace       257858;
    }
    motorBike_rear-shock-link%57
    {
        type            wall;
        inGroups        2(motorBikeGroup wall);
        nFaces          0;
        startFace       257858;
    }
    motorBike_rear-brake-fluid-pot-bracket%58
    {
        type            wall;
        inGroups        2(motorBikeGroup wall);
        nFaces          0;
        startFace       257858;
    }
    motorBike_rear-brake-fluid-pot%59
    {
        type            wall;
        inGroups        2(motorBikeGroup wall);
        nFaces          0;
        startFace       257858;
    }
    motorBike_footpeg%60
    {
        type            wall;
        inGroups        2(motorBikeGroup wall);
        nFaces          0;
        startFace       257858;
    }
    motorBike_rr-wh-chain-hub%61
    {
        type            wall;
        inGroups        2(motorBikeGroup wall);
        nFaces          0;
        startFace       257858;
    }
    motorBike_rear-brake-caliper%62
    {
        type            wall;
        inGroups        2(motorBikeGroup wall);
        nFaces          0;
        startFace       257858;
    }
    motorBike_rider-helmet%65
    {
        type            wall;
        inGroups        2(motorBikeGroup wall);
        nFaces          0;
        startFace       257858;
    }
    motorBike_rider-visor%66
    {
        type            wall;
        inGroups        2(motorBikeGroup wall);
        nFaces          0;
        startFace       257858;
    }
    motorBike_rider-boots%67
    {
        type            wall;
        inGroups        2(motorBikeGroup wall);
        nFaces          0;
        startFace       257858;
    }
    motorBike_rider-gloves%68
    {
        type            wall;
        inGroups        2(motorBikeGroup wall);
        nFaces          0;
        startFace       257858;
    }
    motorBike_rider-body%69
    {
        type            wall;
        inGroups        2(motorBikeGroup wall);
        nFaces          0;
        startFace       257858;
    }
    motorBike_frame:0%70
    {
        type            wall;
        inGroups        2(motorBikeGroup wall);
        nFaces          0;
        startFace       257858;
    }
    motorBike_frt-fairing:001-shadow%74
    {
        type            wall;
        inGroups        2(motorBikeGroup wall);
        nFaces          0;
        startFace       257858;
    }
    motorBike_windshield-shadow%75
    {
        type            wall;
        inGroups        2(motorBikeGroup wall);
        nFaces          0;
        startFace       257858;
    }
    motorBike_fr-mud-guard-shadow%81
    {
        type            wall;
        inGroups        2(motorBikeGroup wall);
        nFaces          1776;
        startFace       257858;
    }
    motorBike_fr-wh-brake-disk-shadow%83
    {
        type            wall;
        inGroups        2(motorBikeGroup wall);
        nFaces          2071;
        startFace       259634;
    }
    motorBike_rear-mud-guard-shadow%84
    {
        type            wall;
        inGroups        2(motorBikeGroup wall);
        nFaces          0;
        startFace       261705;
    }
    motorBike_rear-susp-spring-damp-shadow%85
    {
        type            wall;
        inGroups        2(motorBikeGroup wall);
        nFaces          0;
        startFace       261705;
    }
    motorBike_radiator-shadow%86
    {
        type            wall;
        inGroups        2(motorBikeGroup wall);
        nFaces          0;
        startFace       261705;
    }
    motorBike_rear-shock-link-shadow%87
    {
        type            wall;
        inGroups        2(motorBikeGroup wall);
        nFaces          0;
        startFace       261705;
    }
    motorBike_rear-brake-fluid-pot-bracket-shadow%88
    {
        type            wall;
        inGroups        2(motorBikeGroup wall);
        nFaces          0;
        startFace       261705;
    }
    motorBike_rr-wh-chain-hub-shadow%89
    {
        type            wall;
        inGroups        2(motorBikeGroup wall);
        nFaces          0;
        startFace       261705;
    }
    procBoundary76to70
    {
        type            processor;
        inGroups        1(processor);
        nFaces          19;
        startFace       261705;
        matchTolerance  0.0001;
        transform       unknown;
        myProcNo        76;
        neighbProcNo    70;
    }
    procBoundary76to71
    {
        type            processor;
        inGroups        1(processor);
        nFaces          72;
        startFace       261724;
        matchTolerance  0.0001;
        transform       unknown;
        myProcNo        76;
        neighbProcNo    71;
    }
    procBoundary76to72
    {
        type            processor;
        inGroups        1(processor);
        nFaces          14;
        startFace       261796;
        matchTolerance  0.0001;
        transform       unknown;
        myProcNo        76;
        neighbProcNo    72;
    }
    procBoundary76to73
    {
        type            processor;
        inGroups        1(processor);
        nFaces          1851;
        startFace       261810;
        matchTolerance  0.0001;
        transform       unknown;
        myProcNo        76;
        neighbProcNo    73;
    }
    procBoundary76to75
    {
        type            processor;
        inGroups        1(processor);
        nFaces          160;
        startFace       263661;
        matchTolerance  0.0001;
        transform       unknown;
        myProcNo        76;
        neighbProcNo    75;
    }
    procBoundary76to77
    {
        type            processor;
        inGroups        1(processor);
        nFaces          1917;
        startFace       263821;
        matchTolerance  0.0001;
        transform       unknown;
        myProcNo        76;
        neighbProcNo    77;
    }
    procBoundary76to78
    {
        type            processor;
        inGroups        1(processor);
        nFaces          858;
        startFace       265738;
        matchTolerance  0.0001;
        transform       unknown;
        myProcNo        76;
        neighbProcNo    78;
    }
    procBoundary76to79
    {
        type            processor;
        inGroups        1(processor);
        nFaces          1274;
        startFace       266596;
        matchTolerance  0.0001;
        transform       unknown;
        myProcNo        76;
        neighbProcNo    79;
    }
    procBoundary76to105
    {
        type            processor;
        inGroups        1(processor);
        nFaces          3;
        startFace       267870;
        matchTolerance  0.0001;
        transform       unknown;
        myProcNo        76;
        neighbProcNo    105;
    }
    procBoundary76to111
    {
        type            processor;
        inGroups        1(processor);
        nFaces          43;
        startFace       267873;
        matchTolerance  0.0001;
        transform       unknown;
        myProcNo        76;
        neighbProcNo    111;
    }
)

// ************************************************************************* //
