/*--------------------------------*- C++ -*----------------------------------*\
| =========                 |                                                 |
| \\      /  F ield         | OpenFOAM: The Open Source CFD Toolbox           |
|  \\    /   O peration     | Version:  v1712                                 |
|   \\  /    A nd           | Web:      www.OpenFOAM.com                      |
|    \\/     M anipulation  |                                                 |
\*---------------------------------------------------------------------------*/
FoamFile
{
    version     2.0;
    format      binary;
    class       polyBoundaryMesh;
    arch        "LSB;label=32;scalar=64";
    location    "constant/polyMesh";
    object      boundary;
}
// * * * * * * * * * * * * * * * * * * * * * * * * * * * * * * * * * * * * * //

85
(
    frontAndBack
    {
        type            patch;
        nFaces          0;
        startFace       245410;
    }
    inlet
    {
        type            patch;
        nFaces          0;
        startFace       245410;
    }
    outlet
    {
        type            patch;
        nFaces          0;
        startFace       245410;
    }
    lowerWall
    {
        type            wall;
        inGroups        1(wall);
        nFaces          0;
        startFace       245410;
    }
    upperWall
    {
        type            patch;
        nFaces          0;
        startFace       245410;
    }
    motorBike_frt-fairing:001%1
    {
        type            wall;
        inGroups        2(motorBikeGroup wall);
        nFaces          0;
        startFace       245410;
    }
    motorBike_windshield:002%2
    {
        type            wall;
        inGroups        2(motorBikeGroup wall);
        nFaces          0;
        startFace       245410;
    }
    motorBike_rr-wh-rim:005%5
    {
        type            wall;
        inGroups        2(motorBikeGroup wall);
        nFaces          0;
        startFace       245410;
    }
    motorBike_rr-wh-rim:010%10
    {
        type            wall;
        inGroups        2(motorBikeGroup wall);
        nFaces          948;
        startFace       245410;
    }
    motorBike_fr-wh-rim:011%11
    {
        type            wall;
        inGroups        2(motorBikeGroup wall);
        nFaces          0;
        startFace       246358;
    }
    motorBike_fr-wh-brake-disk:012%12
    {
        type            wall;
        inGroups        2(motorBikeGroup wall);
        nFaces          0;
        startFace       246358;
    }
    motorBike_frame:016-shadow%13
    {
        type            wall;
        inGroups        2(motorBikeGroup wall);
        nFaces          0;
        startFace       246358;
    }
    motorBike_rear-susp:014%14
    {
        type            wall;
        inGroups        2(motorBikeGroup wall);
        nFaces          0;
        startFace       246358;
    }
    motorBike_rear-susp:014-shadow%15
    {
        type            wall;
        inGroups        2(motorBikeGroup wall);
        nFaces          0;
        startFace       246358;
    }
    motorBike_frame:016%16
    {
        type            wall;
        inGroups        2(motorBikeGroup wall);
        nFaces          0;
        startFace       246358;
    }
    motorBike_rr-wh-rim:005-shadow%17
    {
        type            wall;
        inGroups        2(motorBikeGroup wall);
        nFaces          0;
        startFace       246358;
    }
    motorBike_rr-wh-chain-hub:022%22
    {
        type            wall;
        inGroups        2(motorBikeGroup wall);
        nFaces          0;
        startFace       246358;
    }
    motorBike_rearseat%24
    {
        type            wall;
        inGroups        2(motorBikeGroup wall);
        nFaces          0;
        startFace       246358;
    }
    motorBike_frt-fairing%25
    {
        type            wall;
        inGroups        2(motorBikeGroup wall);
        nFaces          0;
        startFace       246358;
    }
    motorBike_windshield%26
    {
        type            wall;
        inGroups        2(motorBikeGroup wall);
        nFaces          0;
        startFace       246358;
    }
    motorBike_headlights%27
    {
        type            wall;
        inGroups        2(motorBikeGroup wall);
        nFaces          0;
        startFace       246358;
    }
    motorBike_driversseat%28
    {
        type            wall;
        inGroups        2(motorBikeGroup wall);
        nFaces          0;
        startFace       246358;
    }
    motorBike_rear-body%29
    {
        type            wall;
        inGroups        2(motorBikeGroup wall);
        nFaces          0;
        startFace       246358;
    }
    motorBike_fuel-tank%30
    {
        type            wall;
        inGroups        2(motorBikeGroup wall);
        nFaces          0;
        startFace       246358;
    }
    motorBike_exhaust%31
    {
        type            wall;
        inGroups        2(motorBikeGroup wall);
        nFaces          0;
        startFace       246358;
    }
    motorBike_rr-wh-rim%32
    {
        type            wall;
        inGroups        2(motorBikeGroup wall);
        nFaces          694;
        startFace       246358;
    }
    motorBike_fr-mud-guard%33
    {
        type            wall;
        inGroups        2(motorBikeGroup wall);
        nFaces          0;
        startFace       247052;
    }
    motorBike_fr-wh-rim%34
    {
        type            wall;
        inGroups        2(motorBikeGroup wall);
        nFaces          0;
        startFace       247052;
    }
    motorBike_fr-wh-brake-disk%35
    {
        type            wall;
        inGroups        2(motorBikeGroup wall);
        nFaces          0;
        startFace       247052;
    }
    motorBike_fr-brake-caliper%36
    {
        type            wall;
        inGroups        2(motorBikeGroup wall);
        nFaces          0;
        startFace       247052;
    }
    motorBike_fr-wh-tyre%37
    {
        type            wall;
        inGroups        2(motorBikeGroup wall);
        nFaces          0;
        startFace       247052;
    }
    motorBike_hbars%38
    {
        type            wall;
        inGroups        2(motorBikeGroup wall);
        nFaces          0;
        startFace       247052;
    }
    motorBike_fr-forks%39
    {
        type            wall;
        inGroups        2(motorBikeGroup wall);
        nFaces          0;
        startFace       247052;
    }
    motorBike_chain%40
    {
        type            wall;
        inGroups        2(motorBikeGroup wall);
        nFaces          0;
        startFace       247052;
    }
    motorBike_rr-wh-tyre%41
    {
        type            wall;
        inGroups        2(motorBikeGroup wall);
        nFaces          3798;
        startFace       247052;
    }
    motorBike_square-dial%42
    {
        type            wall;
        inGroups        2(motorBikeGroup wall);
        nFaces          0;
        startFace       250850;
    }
    motorBike_round-dial%43
    {
        type            wall;
        inGroups        2(motorBikeGroup wall);
        nFaces          0;
        startFace       250850;
    }
    motorBike_dial-holder%44
    {
        type            wall;
        inGroups        2(motorBikeGroup wall);
        nFaces          0;
        startFace       250850;
    }
    motorBike_rear-susp%45
    {
        type            wall;
        inGroups        2(motorBikeGroup wall);
        nFaces          0;
        startFace       250850;
    }
    motorBike_rear-brake-lights%46
    {
        type            wall;
        inGroups        2(motorBikeGroup wall);
        nFaces          0;
        startFace       250850;
    }
    motorBike_rear-light-bracket%47
    {
        type            wall;
        inGroups        2(motorBikeGroup wall);
        nFaces          0;
        startFace       250850;
    }
    motorBike_frame%48
    {
        type            wall;
        inGroups        2(motorBikeGroup wall);
        nFaces          0;
        startFace       250850;
    }
    motorBike_rear-mud-guard%49
    {
        type            wall;
        inGroups        2(motorBikeGroup wall);
        nFaces          7028;
        startFace       250850;
    }
    motorBike_rear-susp-spring-damp%50
    {
        type            wall;
        inGroups        2(motorBikeGroup wall);
        nFaces          0;
        startFace       257878;
    }
    motorBike_fairing-inner-plate%51
    {
        type            wall;
        inGroups        2(motorBikeGroup wall);
        nFaces          0;
        startFace       257878;
    }
    motorBike_clutch-housing%52
    {
        type            wall;
        inGroups        2(motorBikeGroup wall);
        nFaces          0;
        startFace       257878;
    }
    motorBike_radiator%53
    {
        type            wall;
        inGroups        2(motorBikeGroup wall);
        nFaces          0;
        startFace       257878;
    }
    motorBike_water-pipe%54
    {
        type            wall;
        inGroups        2(motorBikeGroup wall);
        nFaces          0;
        startFace       257878;
    }
    motorBike_water-pump%55
    {
        type            wall;
        inGroups        2(motorBikeGroup wall);
        nFaces          0;
        startFace       257878;
    }
    motorBike_engine%56
    {
        type            wall;
        inGroups        2(motorBikeGroup wall);
        nFaces          0;
        startFace       257878;
    }
    motorBike_rear-shock-link%57
    {
        type            wall;
        inGroups        2(motorBikeGroup wall);
        nFaces          0;
        startFace       257878;
    }
    motorBike_rear-brake-fluid-pot-bracket%58
    {
        type            wall;
        inGroups        2(motorBikeGroup wall);
        nFaces          0;
        startFace       257878;
    }
    motorBike_rear-brake-fluid-pot%59
    {
        type            wall;
        inGroups        2(motorBikeGroup wall);
        nFaces          0;
        startFace       257878;
    }
    motorBike_footpeg%60
    {
        type            wall;
        inGroups        2(motorBikeGroup wall);
        nFaces          0;
        startFace       257878;
    }
    motorBike_rr-wh-chain-hub%61
    {
        type            wall;
        inGroups        2(motorBikeGroup wall);
        nFaces          0;
        startFace       257878;
    }
    motorBike_rear-brake-caliper%62
    {
        type            wall;
        inGroups        2(motorBikeGroup wall);
        nFaces          0;
        startFace       257878;
    }
    motorBike_rider-helmet%65
    {
        type            wall;
        inGroups        2(motorBikeGroup wall);
        nFaces          0;
        startFace       257878;
    }
    motorBike_rider-visor%66
    {
        type            wall;
        inGroups        2(motorBikeGroup wall);
        nFaces          0;
        startFace       257878;
    }
    motorBike_rider-boots%67
    {
        type            wall;
        inGroups        2(motorBikeGroup wall);
        nFaces          0;
        startFace       257878;
    }
    motorBike_rider-gloves%68
    {
        type            wall;
        inGroups        2(motorBikeGroup wall);
        nFaces          0;
        startFace       257878;
    }
    motorBike_rider-body%69
    {
        type            wall;
        inGroups        2(motorBikeGroup wall);
        nFaces          0;
        startFace       257878;
    }
    motorBike_frame:0%70
    {
        type            wall;
        inGroups        2(motorBikeGroup wall);
        nFaces          0;
        startFace       257878;
    }
    motorBike_frt-fairing:001-shadow%74
    {
        type            wall;
        inGroups        2(motorBikeGroup wall);
        nFaces          0;
        startFace       257878;
    }
    motorBike_windshield-shadow%75
    {
        type            wall;
        inGroups        2(motorBikeGroup wall);
        nFaces          0;
        startFace       257878;
    }
    motorBike_fr-mud-guard-shadow%81
    {
        type            wall;
        inGroups        2(motorBikeGroup wall);
        nFaces          0;
        startFace       257878;
    }
    motorBike_fr-wh-brake-disk-shadow%83
    {
        type            wall;
        inGroups        2(motorBikeGroup wall);
        nFaces          0;
        startFace       257878;
    }
    motorBike_rear-mud-guard-shadow%84
    {
        type            wall;
        inGroups        2(motorBikeGroup wall);
        nFaces          4235;
        startFace       257878;
    }
    motorBike_rear-susp-spring-damp-shadow%85
    {
        type            wall;
        inGroups        2(motorBikeGroup wall);
        nFaces          0;
        startFace       262113;
    }
    motorBike_radiator-shadow%86
    {
        type            wall;
        inGroups        2(motorBikeGroup wall);
        nFaces          0;
        startFace       262113;
    }
    motorBike_rear-shock-link-shadow%87
    {
        type            wall;
        inGroups        2(motorBikeGroup wall);
        nFaces          0;
        startFace       262113;
    }
    motorBike_rear-brake-fluid-pot-bracket-shadow%88
    {
        type            wall;
        inGroups        2(motorBikeGroup wall);
        nFaces          0;
        startFace       262113;
    }
    motorBike_rr-wh-chain-hub-shadow%89
    {
        type            wall;
        inGroups        2(motorBikeGroup wall);
        nFaces          0;
        startFace       262113;
    }
    procBoundary52to33
    {
        type            processor;
        inGroups        1(processor);
        nFaces          434;
        startFace       262113;
        matchTolerance  0.0001;
        transform       unknown;
        myProcNo        52;
        neighbProcNo    33;
    }
    procBoundary52to35
    {
        type            processor;
        inGroups        1(processor);
        nFaces          227;
        startFace       262547;
        matchTolerance  0.0001;
        transform       unknown;
        myProcNo        52;
        neighbProcNo    35;
    }
    procBoundary52to38
    {
        type            processor;
        inGroups        1(processor);
        nFaces          109;
        startFace       262774;
        matchTolerance  0.0001;
        transform       unknown;
        myProcNo        52;
        neighbProcNo    38;
    }
    procBoundary52to39
    {
        type            processor;
        inGroups        1(processor);
        nFaces          138;
        startFace       262883;
        matchTolerance  0.0001;
        transform       unknown;
        myProcNo        52;
        neighbProcNo    39;
    }
    procBoundary52to48
    {
        type            processor;
        inGroups        1(processor);
        nFaces          1208;
        startFace       263021;
        matchTolerance  0.0001;
        transform       unknown;
        myProcNo        52;
        neighbProcNo    48;
    }
    procBoundary52to49
    {
        type            processor;
        inGroups        1(processor);
        nFaces          557;
        startFace       264229;
        matchTolerance  0.0001;
        transform       unknown;
        myProcNo        52;
        neighbProcNo    49;
    }
    procBoundary52to50
    {
        type            processor;
        inGroups        1(processor);
        nFaces          167;
        startFace       264786;
        matchTolerance  0.0001;
        transform       unknown;
        myProcNo        52;
        neighbProcNo    50;
    }
    procBoundary52to51
    {
        type            processor;
        inGroups        1(processor);
        nFaces          253;
        startFace       264953;
        matchTolerance  0.0001;
        transform       unknown;
        myProcNo        52;
        neighbProcNo    51;
    }
    procBoundary52to53
    {
        type            processor;
        inGroups        1(processor);
        nFaces          1145;
        startFace       265206;
        matchTolerance  0.0001;
        transform       unknown;
        myProcNo        52;
        neighbProcNo    53;
    }
    procBoundary52to54
    {
        type            processor;
        inGroups        1(processor);
        nFaces          1565;
        startFace       266351;
        matchTolerance  0.0001;
        transform       unknown;
        myProcNo        52;
        neighbProcNo    54;
    }
    procBoundary52to55
    {
        type            processor;
        inGroups        1(processor);
        nFaces          260;
        startFace       267916;
        matchTolerance  0.0001;
        transform       unknown;
        myProcNo        52;
        neighbProcNo    55;
    }
    procBoundary52to56
    {
        type            processor;
        inGroups        1(processor);
        nFaces          479;
        startFace       268176;
        matchTolerance  0.0001;
        transform       unknown;
        myProcNo        52;
        neighbProcNo    56;
    }
    procBoundary52to62
    {
        type            processor;
        inGroups        1(processor);
        nFaces          205;
        startFace       268655;
        matchTolerance  0.0001;
        transform       unknown;
        myProcNo        52;
        neighbProcNo    62;
    }
)

// ************************************************************************* //
