/*--------------------------------*- C++ -*----------------------------------*\
| =========                 |                                                 |
| \\      /  F ield         | OpenFOAM: The Open Source CFD Toolbox           |
|  \\    /   O peration     | Version:  v1712                                 |
|   \\  /    A nd           | Web:      www.OpenFOAM.com                      |
|    \\/     M anipulation  |                                                 |
\*---------------------------------------------------------------------------*/
FoamFile
{
    version     2.0;
    format      binary;
    class       polyBoundaryMesh;
    arch        "LSB;label=32;scalar=64";
    location    "constant/polyMesh";
    object      boundary;
}
// * * * * * * * * * * * * * * * * * * * * * * * * * * * * * * * * * * * * * //

91
(
    frontAndBack
    {
        type            patch;
        nFaces          0;
        startFace       248339;
    }
    inlet
    {
        type            patch;
        nFaces          0;
        startFace       248339;
    }
    outlet
    {
        type            patch;
        nFaces          0;
        startFace       248339;
    }
    lowerWall
    {
        type            wall;
        inGroups        1(wall);
        nFaces          0;
        startFace       248339;
    }
    upperWall
    {
        type            patch;
        nFaces          0;
        startFace       248339;
    }
    motorBike_frt-fairing:001%1
    {
        type            wall;
        inGroups        2(motorBikeGroup wall);
        nFaces          4989;
        startFace       248339;
    }
    motorBike_windshield:002%2
    {
        type            wall;
        inGroups        2(motorBikeGroup wall);
        nFaces          0;
        startFace       253328;
    }
    motorBike_rr-wh-rim:005%5
    {
        type            wall;
        inGroups        2(motorBikeGroup wall);
        nFaces          0;
        startFace       253328;
    }
    motorBike_rr-wh-rim:010%10
    {
        type            wall;
        inGroups        2(motorBikeGroup wall);
        nFaces          0;
        startFace       253328;
    }
    motorBike_fr-wh-rim:011%11
    {
        type            wall;
        inGroups        2(motorBikeGroup wall);
        nFaces          0;
        startFace       253328;
    }
    motorBike_fr-wh-brake-disk:012%12
    {
        type            wall;
        inGroups        2(motorBikeGroup wall);
        nFaces          0;
        startFace       253328;
    }
    motorBike_frame:016-shadow%13
    {
        type            wall;
        inGroups        2(motorBikeGroup wall);
        nFaces          0;
        startFace       253328;
    }
    motorBike_rear-susp:014%14
    {
        type            wall;
        inGroups        2(motorBikeGroup wall);
        nFaces          0;
        startFace       253328;
    }
    motorBike_rear-susp:014-shadow%15
    {
        type            wall;
        inGroups        2(motorBikeGroup wall);
        nFaces          0;
        startFace       253328;
    }
    motorBike_frame:016%16
    {
        type            wall;
        inGroups        2(motorBikeGroup wall);
        nFaces          0;
        startFace       253328;
    }
    motorBike_rr-wh-rim:005-shadow%17
    {
        type            wall;
        inGroups        2(motorBikeGroup wall);
        nFaces          0;
        startFace       253328;
    }
    motorBike_rr-wh-chain-hub:022%22
    {
        type            wall;
        inGroups        2(motorBikeGroup wall);
        nFaces          0;
        startFace       253328;
    }
    motorBike_rearseat%24
    {
        type            wall;
        inGroups        2(motorBikeGroup wall);
        nFaces          0;
        startFace       253328;
    }
    motorBike_frt-fairing%25
    {
        type            wall;
        inGroups        2(motorBikeGroup wall);
        nFaces          3671;
        startFace       253328;
    }
    motorBike_windshield%26
    {
        type            wall;
        inGroups        2(motorBikeGroup wall);
        nFaces          0;
        startFace       256999;
    }
    motorBike_headlights%27
    {
        type            wall;
        inGroups        2(motorBikeGroup wall);
        nFaces          2;
        startFace       256999;
    }
    motorBike_driversseat%28
    {
        type            wall;
        inGroups        2(motorBikeGroup wall);
        nFaces          0;
        startFace       257001;
    }
    motorBike_rear-body%29
    {
        type            wall;
        inGroups        2(motorBikeGroup wall);
        nFaces          0;
        startFace       257001;
    }
    motorBike_fuel-tank%30
    {
        type            wall;
        inGroups        2(motorBikeGroup wall);
        nFaces          0;
        startFace       257001;
    }
    motorBike_exhaust%31
    {
        type            wall;
        inGroups        2(motorBikeGroup wall);
        nFaces          0;
        startFace       257001;
    }
    motorBike_rr-wh-rim%32
    {
        type            wall;
        inGroups        2(motorBikeGroup wall);
        nFaces          0;
        startFace       257001;
    }
    motorBike_fr-mud-guard%33
    {
        type            wall;
        inGroups        2(motorBikeGroup wall);
        nFaces          0;
        startFace       257001;
    }
    motorBike_fr-wh-rim%34
    {
        type            wall;
        inGroups        2(motorBikeGroup wall);
        nFaces          0;
        startFace       257001;
    }
    motorBike_fr-wh-brake-disk%35
    {
        type            wall;
        inGroups        2(motorBikeGroup wall);
        nFaces          0;
        startFace       257001;
    }
    motorBike_fr-brake-caliper%36
    {
        type            wall;
        inGroups        2(motorBikeGroup wall);
        nFaces          0;
        startFace       257001;
    }
    motorBike_fr-wh-tyre%37
    {
        type            wall;
        inGroups        2(motorBikeGroup wall);
        nFaces          0;
        startFace       257001;
    }
    motorBike_hbars%38
    {
        type            wall;
        inGroups        2(motorBikeGroup wall);
        nFaces          0;
        startFace       257001;
    }
    motorBike_fr-forks%39
    {
        type            wall;
        inGroups        2(motorBikeGroup wall);
        nFaces          1073;
        startFace       257001;
    }
    motorBike_chain%40
    {
        type            wall;
        inGroups        2(motorBikeGroup wall);
        nFaces          0;
        startFace       258074;
    }
    motorBike_rr-wh-tyre%41
    {
        type            wall;
        inGroups        2(motorBikeGroup wall);
        nFaces          0;
        startFace       258074;
    }
    motorBike_square-dial%42
    {
        type            wall;
        inGroups        2(motorBikeGroup wall);
        nFaces          0;
        startFace       258074;
    }
    motorBike_round-dial%43
    {
        type            wall;
        inGroups        2(motorBikeGroup wall);
        nFaces          0;
        startFace       258074;
    }
    motorBike_dial-holder%44
    {
        type            wall;
        inGroups        2(motorBikeGroup wall);
        nFaces          0;
        startFace       258074;
    }
    motorBike_rear-susp%45
    {
        type            wall;
        inGroups        2(motorBikeGroup wall);
        nFaces          0;
        startFace       258074;
    }
    motorBike_rear-brake-lights%46
    {
        type            wall;
        inGroups        2(motorBikeGroup wall);
        nFaces          0;
        startFace       258074;
    }
    motorBike_rear-light-bracket%47
    {
        type            wall;
        inGroups        2(motorBikeGroup wall);
        nFaces          0;
        startFace       258074;
    }
    motorBike_frame%48
    {
        type            wall;
        inGroups        2(motorBikeGroup wall);
        nFaces          0;
        startFace       258074;
    }
    motorBike_rear-mud-guard%49
    {
        type            wall;
        inGroups        2(motorBikeGroup wall);
        nFaces          0;
        startFace       258074;
    }
    motorBike_rear-susp-spring-damp%50
    {
        type            wall;
        inGroups        2(motorBikeGroup wall);
        nFaces          0;
        startFace       258074;
    }
    motorBike_fairing-inner-plate%51
    {
        type            wall;
        inGroups        2(motorBikeGroup wall);
        nFaces          535;
        startFace       258074;
    }
    motorBike_clutch-housing%52
    {
        type            wall;
        inGroups        2(motorBikeGroup wall);
        nFaces          0;
        startFace       258609;
    }
    motorBike_radiator%53
    {
        type            wall;
        inGroups        2(motorBikeGroup wall);
        nFaces          1430;
        startFace       258609;
    }
    motorBike_water-pipe%54
    {
        type            wall;
        inGroups        2(motorBikeGroup wall);
        nFaces          0;
        startFace       260039;
    }
    motorBike_water-pump%55
    {
        type            wall;
        inGroups        2(motorBikeGroup wall);
        nFaces          0;
        startFace       260039;
    }
    motorBike_engine%56
    {
        type            wall;
        inGroups        2(motorBikeGroup wall);
        nFaces          0;
        startFace       260039;
    }
    motorBike_rear-shock-link%57
    {
        type            wall;
        inGroups        2(motorBikeGroup wall);
        nFaces          0;
        startFace       260039;
    }
    motorBike_rear-brake-fluid-pot-bracket%58
    {
        type            wall;
        inGroups        2(motorBikeGroup wall);
        nFaces          0;
        startFace       260039;
    }
    motorBike_rear-brake-fluid-pot%59
    {
        type            wall;
        inGroups        2(motorBikeGroup wall);
        nFaces          0;
        startFace       260039;
    }
    motorBike_footpeg%60
    {
        type            wall;
        inGroups        2(motorBikeGroup wall);
        nFaces          0;
        startFace       260039;
    }
    motorBike_rr-wh-chain-hub%61
    {
        type            wall;
        inGroups        2(motorBikeGroup wall);
        nFaces          0;
        startFace       260039;
    }
    motorBike_rear-brake-caliper%62
    {
        type            wall;
        inGroups        2(motorBikeGroup wall);
        nFaces          0;
        startFace       260039;
    }
    motorBike_rider-helmet%65
    {
        type            wall;
        inGroups        2(motorBikeGroup wall);
        nFaces          0;
        startFace       260039;
    }
    motorBike_rider-visor%66
    {
        type            wall;
        inGroups        2(motorBikeGroup wall);
        nFaces          0;
        startFace       260039;
    }
    motorBike_rider-boots%67
    {
        type            wall;
        inGroups        2(motorBikeGroup wall);
        nFaces          0;
        startFace       260039;
    }
    motorBike_rider-gloves%68
    {
        type            wall;
        inGroups        2(motorBikeGroup wall);
        nFaces          0;
        startFace       260039;
    }
    motorBike_rider-body%69
    {
        type            wall;
        inGroups        2(motorBikeGroup wall);
        nFaces          0;
        startFace       260039;
    }
    motorBike_frame:0%70
    {
        type            wall;
        inGroups        2(motorBikeGroup wall);
        nFaces          0;
        startFace       260039;
    }
    motorBike_frt-fairing:001-shadow%74
    {
        type            wall;
        inGroups        2(motorBikeGroup wall);
        nFaces          2733;
        startFace       260039;
    }
    motorBike_windshield-shadow%75
    {
        type            wall;
        inGroups        2(motorBikeGroup wall);
        nFaces          0;
        startFace       262772;
    }
    motorBike_fr-mud-guard-shadow%81
    {
        type            wall;
        inGroups        2(motorBikeGroup wall);
        nFaces          0;
        startFace       262772;
    }
    motorBike_fr-wh-brake-disk-shadow%83
    {
        type            wall;
        inGroups        2(motorBikeGroup wall);
        nFaces          0;
        startFace       262772;
    }
    motorBike_rear-mud-guard-shadow%84
    {
        type            wall;
        inGroups        2(motorBikeGroup wall);
        nFaces          0;
        startFace       262772;
    }
    motorBike_rear-susp-spring-damp-shadow%85
    {
        type            wall;
        inGroups        2(motorBikeGroup wall);
        nFaces          0;
        startFace       262772;
    }
    motorBike_radiator-shadow%86
    {
        type            wall;
        inGroups        2(motorBikeGroup wall);
        nFaces          865;
        startFace       262772;
    }
    motorBike_rear-shock-link-shadow%87
    {
        type            wall;
        inGroups        2(motorBikeGroup wall);
        nFaces          0;
        startFace       263637;
    }
    motorBike_rear-brake-fluid-pot-bracket-shadow%88
    {
        type            wall;
        inGroups        2(motorBikeGroup wall);
        nFaces          0;
        startFace       263637;
    }
    motorBike_rr-wh-chain-hub-shadow%89
    {
        type            wall;
        inGroups        2(motorBikeGroup wall);
        nFaces          0;
        startFace       263637;
    }
    procBoundary108to64
    {
        type            processor;
        inGroups        1(processor);
        nFaces          92;
        startFace       263637;
        matchTolerance  0.0001;
        transform       unknown;
        myProcNo        108;
        neighbProcNo    64;
    }
    procBoundary108to65
    {
        type            processor;
        inGroups        1(processor);
        nFaces          669;
        startFace       263729;
        matchTolerance  0.0001;
        transform       unknown;
        myProcNo        108;
        neighbProcNo    65;
    }
    procBoundary108to66
    {
        type            processor;
        inGroups        1(processor);
        nFaces          184;
        startFace       264398;
        matchTolerance  0.0001;
        transform       unknown;
        myProcNo        108;
        neighbProcNo    66;
    }
    procBoundary108to78
    {
        type            processor;
        inGroups        1(processor);
        nFaces          24;
        startFace       264582;
        matchTolerance  0.0001;
        transform       unknown;
        myProcNo        108;
        neighbProcNo    78;
    }
    procBoundary108to96
    {
        type            processor;
        inGroups        1(processor);
        nFaces          373;
        startFace       264606;
        matchTolerance  0.0001;
        transform       unknown;
        myProcNo        108;
        neighbProcNo    96;
    }
    procBoundary108to101
    {
        type            processor;
        inGroups        1(processor);
        nFaces          290;
        startFace       264979;
        matchTolerance  0.0001;
        transform       unknown;
        myProcNo        108;
        neighbProcNo    101;
    }
    procBoundary108to103
    {
        type            processor;
        inGroups        1(processor);
        nFaces          200;
        startFace       265269;
        matchTolerance  0.0001;
        transform       unknown;
        myProcNo        108;
        neighbProcNo    103;
    }
    procBoundary108to104
    {
        type            processor;
        inGroups        1(processor);
        nFaces          1418;
        startFace       265469;
        matchTolerance  0.0001;
        transform       unknown;
        myProcNo        108;
        neighbProcNo    104;
    }
    procBoundary108to105
    {
        type            processor;
        inGroups        1(processor);
        nFaces          244;
        startFace       266887;
        matchTolerance  0.0001;
        transform       unknown;
        myProcNo        108;
        neighbProcNo    105;
    }
    procBoundary108to106
    {
        type            processor;
        inGroups        1(processor);
        nFaces          325;
        startFace       267131;
        matchTolerance  0.0001;
        transform       unknown;
        myProcNo        108;
        neighbProcNo    106;
    }
    procBoundary108to107
    {
        type            processor;
        inGroups        1(processor);
        nFaces          373;
        startFace       267456;
        matchTolerance  0.0001;
        transform       unknown;
        myProcNo        108;
        neighbProcNo    107;
    }
    procBoundary108to109
    {
        type            processor;
        inGroups        1(processor);
        nFaces          2634;
        startFace       267829;
        matchTolerance  0.0001;
        transform       unknown;
        myProcNo        108;
        neighbProcNo    109;
    }
    procBoundary108to110
    {
        type            processor;
        inGroups        1(processor);
        nFaces          339;
        startFace       270463;
        matchTolerance  0.0001;
        transform       unknown;
        myProcNo        108;
        neighbProcNo    110;
    }
    procBoundary108to111
    {
        type            processor;
        inGroups        1(processor);
        nFaces          994;
        startFace       270802;
        matchTolerance  0.0001;
        transform       unknown;
        myProcNo        108;
        neighbProcNo    111;
    }
    procBoundary108to115
    {
        type            processor;
        inGroups        1(processor);
        nFaces          576;
        startFace       271796;
        matchTolerance  0.0001;
        transform       unknown;
        myProcNo        108;
        neighbProcNo    115;
    }
    procBoundary108to116
    {
        type            processor;
        inGroups        1(processor);
        nFaces          307;
        startFace       272372;
        matchTolerance  0.0001;
        transform       unknown;
        myProcNo        108;
        neighbProcNo    116;
    }
    procBoundary108to117
    {
        type            processor;
        inGroups        1(processor);
        nFaces          142;
        startFace       272679;
        matchTolerance  0.0001;
        transform       unknown;
        myProcNo        108;
        neighbProcNo    117;
    }
    procBoundary108to120
    {
        type            processor;
        inGroups        1(processor);
        nFaces          359;
        startFace       272821;
        matchTolerance  0.0001;
        transform       unknown;
        myProcNo        108;
        neighbProcNo    120;
    }
    procBoundary108to121
    {
        type            processor;
        inGroups        1(processor);
        nFaces          32;
        startFace       273180;
        matchTolerance  0.0001;
        transform       unknown;
        myProcNo        108;
        neighbProcNo    121;
    }
)

// ************************************************************************* //
